
#======================================================================
# CRYSTAL DATA
#----------------------------------------------------------------------
data_VESTA_phase_1

_chemical_name_common                  'New structure'
_cell_length_a                         4.050000
_cell_length_b                         4.050000
_cell_length_c                         29.639999
_cell_angle_alpha                      90.000000
_cell_angle_beta                       90.000000
_cell_angle_gamma                      120.000000
_cell_volume                           421.035688
_space_group_name_H-M_alt              'R 3 m'
_space_group_IT_number                 160

loop_
_space_group_symop_operation_xyz
   'x, y, z'
   '-y, x-y, z'
   '-x+y, -x, z'
   '-y, -x, z'
   '-x+y, y, z'
   'x, x-y, z'
   'x+2/3, y+1/3, z+1/3'
   '-y+2/3, x-y+1/3, z+1/3'
   '-x+y+2/3, -x+1/3, z+1/3'
   '-y+2/3, -x+1/3, z+1/3'
   '-x+y+2/3, y+1/3, z+1/3'
   'x+2/3, x-y+1/3, z+1/3'
   'x+1/3, y+2/3, z+2/3'
   '-y+1/3, x-y+2/3, z+2/3'
   '-x+y+1/3, -x+2/3, z+2/3'
   '-y+1/3, -x+2/3, z+2/3'
   '-x+y+1/3, y+2/3, z+2/3'
   'x+1/3, x-y+2/3, z+2/3'

loop_
   _atom_site_label
   _atom_site_occupancy
   _atom_site_fract_x
   _atom_site_fract_y
   _atom_site_fract_z
   _atom_site_adp_type
   _atom_site_U_iso_or_equiv
   _atom_site_type_symbol
   In1        1.0     0.666667     0.333333     0.858000    Uiso  0.050000 In
   In2        1.0     0.666667     0.333333     0.046600    Uiso  0.050000 In
   Se1        1.0     0.666667     0.333333     0.772300    Uiso  0.050000 Se
   Se2        1.0     0.333333     0.666667     0.898800    Uiso  0.050000 Se
   Se3        1.0     0.000000     0.000000     0.000000    Uiso  0.050000 Se
